test/data/pf_comparison/pf_zip_delta.dss
! Three-phase DELTA ZIP load on a four-wire branch — comparison case.
!
! Topology: src ──[4-wire line, 0.5 km]── lb
!   Unbalanced delta ZIP arms (line-to-line controlling voltage):
!     d12 across lb.1-2 = 15 kW + 5 kVAr
!     d23 across lb.2-3 = 10 kW + 3 kVAr
!     d31 across lb.3-1 = 20 kW + 7 kVAr
!
!   P = P0·(0.45·v² + 0.25·v + 0.30)
!   Q = Q0·(0.40·v² + 0.30·v + 0.30)   with v = |V_ll|/Vnom,  Vnom = 415 V
!
! This is the one combination that exercises BOTH the delta arm wiring (line-to-
! line voltage drives the ZIP polynomial) and the voltage-dependent model — the
! interaction where the result extractor's controlling-voltage choice matters.
! As a pure delta, the neutral carries ~0 current (lb.4 stays near earth).

Clear

New Circuit.pf_zip_delta basekv=0.415 pu=1.0 angle=0 phases=3 bus1=src.1.2.3 model=ideal

New Reactor.grnd bus1=src.4 bus2=src.0 R=0.001 X=0

New Linecode.4w nphases=4
~ Rmatrix=[0.500|0.020 0.500|0.020 0.020 0.500|0.020 0.020 0.020 0.500]
~ Xmatrix=[0.200|0.050 0.200|0.050 0.050 0.200|0.050 0.050 0.050 0.200]
~ Cmatrix=[0|0 0|0 0 0|0 0 0 0]
~ units=km

New Line.l1 bus1=src.1.2.3.4 bus2=lb.1.2.3.4 linecode=4w length=500 units=m

New Load.d12 bus1=lb.1.2 phases=1 conn=delta kv=0.415 kw=15 kvar=5 model=8 ZIPV=(0.45 0.25 0.30 0.40 0.30 0.30 0.0) Vminpu=0 Vmaxpu=2
New Load.d23 bus1=lb.2.3 phases=1 conn=delta kv=0.415 kw=10 kvar=3 model=8 ZIPV=(0.45 0.25 0.30 0.40 0.30 0.30 0.0) Vminpu=0 Vmaxpu=2
New Load.d31 bus1=lb.3.1 phases=1 conn=delta kv=0.415 kw=20 kvar=7 model=8 ZIPV=(0.45 0.25 0.30 0.40 0.30 0.30 0.0) Vminpu=0 Vmaxpu=2

Set VoltageBases=[0.415]
CalcVoltageBases
Solve
